*SPEF "IEEE 1481-1998"
*DESIGN "edit_dist_slow"
*DATE "Fri Mar 22 00:55:08 2024
"*VENDOR "TAU 2019 Contest Team TimeBoost Solution"
*PROGRAM "TimeBoost Optimizer"
*VERSION "0.0"
*DESIGN_FLOW "PIN_CAP NONE" "NAME_SCOPE LOCAL" "MISSING_NETS"
*DIVIDER /
*DELIMITER :
*BUS_DELIMITER [ ]
*T_UNIT 1 PS
*C_UNIT 1 FF
*R_UNIT 1 KOHM
*L_UNIT 1 UH

