*SPEF "IEEE 1481-1998"
*DESIGN "systemcdes"
*DATE "Mon Jul  8 15:09:25 2019
"*VENDOR "TAU 2019 Contest Team TimeBoost Solution"
*PROGRAM "TimeBoost Optimizer"
*VERSION "0.0"
*DESIGN_FLOW "PIN_CAP NONE" "NAME_SCOPE LOCAL" "MISSING_NETS"
*DIVIDER /
*DELIMITER :
*BUS_DELIMITER [ ]
*T_UNIT 1 PS
*C_UNIT 1 FF
*R_UNIT 1 KOHM
*L_UNIT 1 UH

*D_NET x1710 1.4088
*CONN
*I inst_2262:A I
*P x1710 I
*CAP
1 x1710 0.0287
2 x1710:1 0.001
3 x1710:2 0.0196
4 x1710:3 0.001
5 x1710:4 0.3399
6 x1710:5 0.9742
7 x1710:6 0.001
8 x1710:7 0.001
9 inst_2262:A 0.0424
*RES
1 x1710 x1710:1 0.001
2 x1710:1 x1710:2 0.005
3 x1710:2 x1710:3 0.001
4 x1710:3 x1710:4 0.017
5 x1710:4 x1710:5 0.005
6 x1710:5 x1710:6 0.0455
7 x1710:6 x1710:7 0.005
8 x1710:7 inst_2262:A 0.0031
*END

*D_NET x1826 0.7232
*CONN
*I inst_2703:B2 I
*P x1826 I
*CAP
1 x1826 0.0291
2 x1826:1 0.001
3 x1826:2 0.001
4 x1826:3 0.0237
5 x1826:4 0.5299
6 x1826:5 0.0967
7 x1826:6 0.001
8 x1826:7 0.001
9 inst_2703:B2 0.0398
*RES
1 x1826 x1826:1 0.001
2 x1826:1 x1826:2 0.005
3 x1826:2 x1826:3 0.001
4 x1826:3 x1826:4 0.0251
5 x1826:4 x1826:5 0.005
6 x1826:5 x1826:6 0.003
7 x1826:6 x1826:7 0.005
8 x1826:7 inst_2703:B2 0.0021
*END

*D_NET x1244 3.5886
*CONN
*I inst_1703:A2 I
*P x1244 I
*CAP
1 x1244 0.3743
2 x1244:1 0.0087
3 x1244:2 0.001
4 x1244:3 0.1226
5 x1244:4 0.0176
6 x1244:5 0.0151
7 x1244:6 2.0775
8 x1244:7 0.001
9 x1244:8 0.001
10 x1244:9 0.5749
11 x1244:10 0.2198
12 x1244:11 0.001
13 x1244:12 0.001
14 x1244:13 0.0386
15 x1244:14 0.1113
16 x1244:15 0.001
17 x1244:16 0.001
18 inst_1703:A2 0.0212
*RES
1 x1244 x1244:1 0.0161
2 x1244:1 x1244:2 0.005
3 x1244:2 x1244:3 0.0062
4 x1244:3 x1244:4 0.005
5 x1244:4 x1244:5 0.003
6 x1244:5 x1244:6 0.003
7 x1244:6 x1244:7 0.0445
8 x1244:7 x1244:8 0.003
9 x1244:8 x1244:9 0.0088
10 x1244:9 x1244:10 0.003
11 x1244:10 x1244:11 0.0025
12 x1244:11 x1244:12 0.005
13 x1244:12 x1244:13 0.001
14 x1244:13 x1244:14 0.005
15 x1244:14 x1244:15 0.003
16 x1244:15 x1244:16 0.005
17 x1244:16 inst_1703:A2 0.001
*END

*D_NET x815 2.5836
*CONN
*I inst_1182:A2 I
*P x815 I
*CAP
1 x815 0.0256
2 x815:1 0.001
3 x815:2 0.001
4 x815:3 0.1934
5 x815:4 0.001
6 x815:5 0.001
7 x815:6 0.94
8 x815:7 0.1382
9 x815:8 0.001
10 x815:9 0.001
11 x815:10 0.952
12 x815:11 0.0852
13 x815:12 0.001
14 x815:13 0.001
15 x815:14 0.2276
16 inst_1182:A2 0.0136
*RES
1 x815 x815:1 0.001
2 x815:1 x815:2 0.005
3 x815:2 x815:3 0.001
4 x815:3 x815:4 0.0076
5 x815:4 x815:5 0.005
6 x815:5 x815:6 0.013
7 x815:6 x815:7 0.003
8 x815:7 x815:8 0.0025
9 x815:8 x815:9 0.003
10 x815:9 x815:10 0.0172
11 x815:10 x815:11 0.005
12 x815:11 x815:12 0.004
13 x815:12 x815:13 0.005
14 x815:13 x815:14 0.0085
15 x815:14 inst_1182:A2 0.005
*END

*D_NET x761 4.0547
*CONN
*I inst_1385:A2 I
*P x761 I
*CAP
1 x761 0.0255
2 x761:1 0.001
3 x761:2 0.0089
4 x761:3 0.2804
5 x761:4 0.001
6 x761:5 0.001
7 x761:6 2.0919
8 x761:7 0.0155
9 x761:8 0.001
10 x761:9 1.0702
11 x761:10 0.3931
12 x761:11 0.001
13 x761:12 0.0212
14 x761:13 0.0687
15 x761:14 0.001
16 x761:15 0.001
17 x761:16 0.0497
18 x761:17 0.001
19 inst_1385:A2 0.0216
*RES
1 x761 x761:1 0.001
2 x761:1 x761:2 0.005
3 x761:2 x761:3 0.001
4 x761:3 x761:4 0.0116
5 x761:4 x761:5 0.005
6 x761:5 x761:6 0.0367
7 x761:6 x761:7 0.003
8 x761:7 x761:8 0.003
9 x761:8 x761:9 0.0273
10 x761:9 x761:10 0.003
11 x761:10 x761:11 0.008
12 x761:11 x761:12 0.003
13 x761:12 x761:13 0.005
14 x761:13 x761:14 0.0019
15 x761:14 x761:15 0.005
16 x761:15 x761:16 0.001
17 x761:16 x761:17 0.005
18 x761:17 inst_1385:A2 0.001
*END

*D_NET x2017 1.1746
*CONN
*I inst_2300:A I
*P x2017 I
*CAP
1 x2017 0.0291
2 x2017:1 0.001
3 x2017:2 0.001
4 x2017:3 0.0242
5 x2017:4 0.3849
6 x2017:5 0.001
7 x2017:6 0.7026
8 x2017:7 0.001
9 inst_2300:A 0.0298
*RES
1 x2017 x2017:1 0.001
2 x2017:1 x2017:2 0.005
3 x2017:2 x2017:3 0.001
4 x2017:3 x2017:4 0.017
5 x2017:4 x2017:5 0.005
6 x2017:5 x2017:6 0.035
7 x2017:6 x2017:7 0.005
8 x2017:7 inst_2300:A 0.0021
*END

*D_NET x1785 2.1516
*CONN
*I inst_2715:B2 I
*P x1785 I
*CAP
1 x1785 0.0291
2 x1785:1 0.001
3 x1785:2 0.001
4 x1785:3 0.0237
5 x1785:4 0.3172
6 x1785:5 0.0189
7 x1785:6 0.001
8 x1785:7 1.4464
9 x1785:8 0.1282
10 x1785:9 0.001
11 x1785:10 0.0087
12 x1785:11 0.1556
13 x1785:12 0.001
14 x1785:13 0.001
15 inst_2715:B2 0.0178
*RES
1 x1785 x1785:1 0.001
2 x1785:1 x1785:2 0.005
3 x1785:2 x1785:3 0.001
4 x1785:3 x1785:4 0.0129
5 x1785:4 x1785:5 0.005
6 x1785:5 x1785:6 0.003
7 x1785:6 x1785:7 0.0239
8 x1785:7 x1785:8 0.003
9 x1785:8 x1785:9 0.001
10 x1785:9 x1785:10 0.005
11 x1785:10 x1785:11 0.005
12 x1785:11 x1785:12 0.005
13 x1785:12 x1785:13 0.005
14 x1785:13 inst_2715:B2 0.001
*END

*D_NET x843 1.236
*CONN
*I inst_2291:A I
*P x843 I
*CAP
1 x843 0.0304
2 x843:1 0.001
3 x843:2 0.6751
4 x843:3 0.001
5 x843:4 0.501
6 x843:5 0.001
7 inst_2291:A 0.0265
*RES
1 x843 x843:1 0.001
2 x843:1 x843:2 0.005
3 x843:2 x843:3 0.0312
4 x843:3 x843:4 0.005
5 x843:4 x843:5 0.021
6 x843:5 inst_2291:A 0.005
*END

*D_NET x1024 0.612
*CONN
*I inst_2259:A I
*P x1024 I
*CAP
1 x1024 0.3892
2 x1024:1 0.019
3 x1024:2 0.0942
4 x1024:3 0.001
5 x1024:4 0.0968
6 x1024:5 0.001
7 inst_2259:A 0.0108
*RES
1 x1024 x1024:1 0.0176
2 x1024:1 x1024:2 0.005
3 x1024:2 x1024:3 0.0041
4 x1024:3 x1024:4 0.005
5 x1024:4 x1024:5 0.0035
6 x1024:5 inst_2259:A 0.005
*END

*D_NET x2211 5.2876
*CONN
*I inst_2717:B2 I
*P x2211 I
*CAP
1 x2211 0.0286
2 x2211:1 0.001
3 x2211:2 0.001
4 x2211:3 0.0204
5 x2211:4 0.1368
6 x2211:5 0.001
7 x2211:6 1.1312
8 x2211:7 0.001
9 x2211:8 1.0504
10 x2211:9 0.001
11 x2211:10 0.1884
12 x2211:11 0.0204
13 x2211:12 0.2824
14 x2211:13 0.001
15 x2211:14 0.4668
16 x2211:15 0.001
17 x2211:16 0.3707
18 x2211:17 0.001
19 x2211:18 0.8608
20 x2211:19 0.0104
21 x2211:20 0.2508
22 x2211:21 0.001
23 x2211:22 0.0391
24 x2211:23 0.001
25 x2211:24 0.1304
26 x2211:25 0.0352
27 x2211:26 0.001
28 x2211:27 0.0262
29 x2211:28 0.2189
30 inst_2717:B2 0.0087
*RES
1 x2211 x2211:1 0.001
2 x2211:1 x2211:2 0.005
3 x2211:2 x2211:3 0.001
4 x2211:3 x2211:4 0.0069
5 x2211:4 x2211:5 0.005
6 x2211:5 x2211:6 0.0235
7 x2211:6 x2211:7 0.003
8 x2211:7 x2211:8 0.0218
9 x2211:8 x2211:9 0.003
10 x2211:9 x2211:10 0.0017
11 x2211:10 x2211:11 0.001
12 x2211:11 x2211:12 0.0046
13 x2211:12 x2211:13 0.005
14 x2211:13 x2211:14 0.0182
15 x2211:14 x2211:15 0.005
16 x2211:15 x2211:16 0.0135
17 x2211:16 x2211:17 0.005
18 x2211:17 x2211:18 0.0312
19 x2211:18 x2211:19 0.005
20 x2211:19 x2211:20 0.01
21 x2211:20 x2211:21 0.005
22 x2211:21 x2211:22 0.001
23 x2211:22 x2211:23 0.005
24 x2211:23 x2211:24 0.001
25 x2211:24 x2211:25 0.005
26 x2211:25 x2211:26 0.001
27 x2211:26 x2211:27 0.005
28 x2211:27 x2211:28 0.009
29 x2211:28 inst_2717:B2 0.005
*END

*D_NET x997 1.4724
*CONN
*I inst_2299:A I
*P x997 I
*CAP
1 x997 0.1635
2 x997:1 0.015
3 x997:2 0.001
4 x997:3 0.8203
5 x997:4 0.3281
6 x997:5 0.001
7 x997:6 0.0136
8 x997:7 0.1074
9 x997:8 0.001
10 inst_2299:A 0.0215
*RES
1 x997 x997:1 0.0071
2 x997:1 x997:2 0.005
3 x997:2 x997:3 0.0426
4 x997:3 x997:4 0.005
5 x997:4 x997:5 0.0063
6 x997:5 x997:6 0.005
7 x997:6 x997:7 0.005
8 x997:7 x997:8 0.0025
9 x997:8 inst_2299:A 0.005
*END

*D_NET x1361 1.3852
*CONN
*I inst_2281:A I
*P x1361 I
*CAP
1 x1361 0.0355
2 x1361:1 0.0082
3 x1361:2 0.001
4 x1361:3 0.8751
5 x1361:4 0.4529
6 x1361:5 0.001
7 inst_2281:A 0.0115
*RES
1 x1361 x1361:1 0.0016
2 x1361:1 x1361:2 0.005
3 x1361:2 x1361:3 0.0509
4 x1361:3 x1361:4 0.005
5 x1361:4 x1361:5 0.0195
6 x1361:5 inst_2281:A 0.005
*END

*D_NET x748 1.3839
*CONN
*I inst_2274:A I
*P x748 I
*CAP
1 x748 0.0256
2 x748:1 0.001
3 x748:2 0.001
4 x748:3 0.3899
5 x748:4 0.001
6 x748:5 0.001
7 x748:6 0.431
8 x748:7 0.001
9 x748:8 0.2763
10 x748:9 0.0103
11 x748:10 0.001
12 x748:11 0.2329
13 inst_2274:A 0.0119
*RES
1 x748 x748:1 0.001
2 x748:1 x748:2 0.005
3 x748:2 x748:3 0.001
4 x748:3 x748:4 0.0166
5 x748:4 x748:5 0.005
6 x748:5 x748:6 0.008
7 x748:6 x748:7 0.001
8 x748:7 x748:8 0.0044
9 x748:8 x748:9 0.005
10 x748:9 x748:10 0.005
11 x748:10 x748:11 0.0105
12 x748:11 inst_2274:A 0.005
*END

*D_NET x1800 0.5629
*CONN
*I inst_2284:A I
*P x1800 I
*CAP
1 x1800 0.0291
2 x1800:1 0.001
3 x1800:2 0.0269
4 x1800:3 0.001
5 x1800:4 0.3857
6 x1800:5 0.1055
7 x1800:6 0.001
8 inst_2284:A 0.0127
*RES
1 x1800 x1800:1 0.001
2 x1800:1 x1800:2 0.005
3 x1800:2 x1800:3 0.001
4 x1800:3 x1800:4 0.0176
5 x1800:4 x1800:5 0.005
6 x1800:5 x1800:6 0.003
7 x1800:6 inst_2284:A 0.005
*END

*D_NET x1636 0.7739
*CONN
*I inst_2276:A I
*P x1636 I
*CAP
1 x1636 0.0291
2 x1636:1 0.001
3 x1636:2 0.0284
4 x1636:3 0.001
5 x1636:4 0.3256
6 x1636:5 0.3697
7 x1636:6 0.001
8 x1636:7 0.001
9 inst_2276:A 0.0171
*RES
1 x1636 x1636:1 0.001
2 x1636:1 x1636:2 0.005
3 x1636:2 x1636:3 0.001
4 x1636:3 x1636:4 0.017
5 x1636:4 x1636:5 0.005
6 x1636:5 x1636:6 0.0195
7 x1636:6 x1636:7 0.005
8 x1636:7 inst_2276:A 0.001
*END

*D_NET x876 1.2761
*CONN
*I inst_2283:A I
*P x876 I
*CAP
1 x876 0.0269
2 x876:1 0.1883
3 x876:2 0.001
4 x876:3 0.8978
5 x876:4 0.001
6 x876:5 0.001
7 inst_2283:A 0.1601
*RES
1 x876 x876:1 0.005
2 x876:1 x876:2 0.0142
3 x876:2 x876:3 0.005
4 x876:3 x876:4 0.041
5 x876:4 x876:5 0.005
6 x876:5 inst_2283:A 0.0124
*END

*D_NET x1742 0.5121
*CONN
*I inst_2296:A I
*P x1742 I
*CAP
1 x1742 0.0291
2 x1742:1 0.001
3 x1742:2 0.001
4 x1742:3 0.0237
5 x1742:4 0.3782
6 x1742:5 0.001
7 x1742:6 0.0653
8 inst_2296:A 0.0128
*RES
1 x1742 x1742:1 0.001
2 x1742:1 x1742:2 0.005
3 x1742:2 x1742:3 0.001
4 x1742:3 x1742:4 0.0176
5 x1742:4 x1742:5 0.005
6 x1742:5 x1742:6 0.0015
7 x1742:6 inst_2296:A 0.005
*END

*D_NET x621 0.5333
*CONN
*I inst_2375:A I
*P x621 I
*CAP
1 x621 0.0251
2 x621:1 0.001
3 x621:2 0.001
4 x621:3 0.403
5 x621:4 0.001
6 x621:5 0.001
7 x621:6 0.0898
8 inst_2375:A 0.0114
*RES
1 x621 x621:1 0.001
2 x621:1 x621:2 0.005
3 x621:2 x621:3 0.001
4 x621:3 x621:4 0.0176
5 x621:4 x621:5 0.005
6 x621:5 x621:6 0.003
7 x621:6 inst_2375:A 0.005
*END

*D_NET x1517 6.8233
*CONN
*I inst_2701:B2 I
*P x1517 I
*CAP
1 x1517 0.0266
2 x1517:1 0.001
3 x1517:2 0.0089
4 x1517:3 0.001
5 x1517:4 0.067
6 x1517:5 0.001
7 x1517:6 1.3417
8 x1517:7 0.0896
9 x1517:8 0.001
10 x1517:9 1.2397
11 x1517:10 0.001
12 x1517:11 0.001
13 x1517:12 1.3003
14 x1517:13 0.657
15 x1517:14 0.001
16 x1517:15 0.0939
17 x1517:16 1.5581
18 x1517:17 0.001
19 x1517:18 0.0647
20 x1517:19 0.0905
21 x1517:20 0.001
22 x1517:21 0.0587
23 x1517:22 0.001
24 x1517:23 0.024
25 x1517:24 0.0813
26 x1517:25 0.001
27 x1517:26 0.0983
28 x1517:27 0.001
29 inst_2701:B2 0.011
*RES
1 x1517 x1517:1 0.001
2 x1517:1 x1517:2 0.005
3 x1517:2 x1517:3 0.005
4 x1517:3 x1517:4 0.001
5 x1517:4 x1517:5 0.003
6 x1517:5 x1517:6 0.0332
7 x1517:6 x1517:7 0.003
8 x1517:7 x1517:8 0.0017
9 x1517:8 x1517:9 0.001
10 x1517:9 x1517:10 0.0265
11 x1517:10 x1517:11 0.003
12 x1517:11 x1517:12 0.0018
13 x1517:12 x1517:13 0.003
14 x1517:13 x1517:14 0.0126
15 x1517:14 x1517:15 0.003
16 x1517:15 x1517:16 0.001
17 x1517:16 x1517:17 0.0022
18 x1517:17 x1517:18 0.001
19 x1517:18 x1517:19 0.003
20 x1517:19 x1517:20 0.001
21 x1517:20 x1517:21 0.003
22 x1517:21 x1517:22 0.001
23 x1517:22 x1517:23 0.003
24 x1517:23 x1517:24 0.005
25 x1517:24 x1517:25 0.0026
26 x1517:25 x1517:26 0.005
27 x1517:26 x1517:27 0.003
28 x1517:27 inst_2701:B2 0.005
*END

*D_NET x1435 4.6619
*CONN
*I inst_2700:B2 I
*P x1435 I
*CAP
1 x1435 0.0231
2 x1435:1 0.001
3 x1435:2 1.1657
4 x1435:3 0.1835
5 x1435:4 0.001
6 x1435:5 0.001
7 x1435:6 0.387
8 x1435:7 0.0227
9 x1435:8 0.001
10 x1435:9 0.0758
11 x1435:10 0.0237
12 x1435:11 0.0142
13 x1435:12 1.1613
14 x1435:13 1.4843
15 x1435:14 0.001
16 x1435:15 0.001
17 x1435:16 0.0324
18 x1435:17 0.0561
19 x1435:18 0.001
20 x1435:19 0.001
21 inst_2700:B2 0.0241
*RES
1 x1435 x1435:1 0.005
2 x1435:1 x1435:2 0.1014
3 x1435:2 x1435:3 0.005
4 x1435:3 x1435:4 0.007
5 x1435:4 x1435:5 0.005
6 x1435:5 x1435:6 0.0184
7 x1435:6 x1435:7 0.005
8 x1435:7 x1435:8 0.003
9 x1435:8 x1435:9 0.001
10 x1435:9 x1435:10 0.003
11 x1435:10 x1435:11 0.005
12 x1435:11 x1435:12 0.053
13 x1435:12 x1435:13 0.005
14 x1435:13 x1435:14 0.0235
15 x1435:14 x1435:15 0.005
16 x1435:15 x1435:16 0.001
17 x1435:16 x1435:17 0.005
18 x1435:17 x1435:18 0.001
19 x1435:18 x1435:19 0.005
20 x1435:19 inst_2700:B2 0.001
*END

*D_NET x1681 4.761
*CONN
*I inst_2707:B2 I
*P x1681 I
*CAP
1 x1681 0.0287
2 x1681:1 0.001
3 x1681:2 0.0199
4 x1681:3 0.001
5 x1681:4 0.0275
6 x1681:5 0.0907
7 x1681:6 0.001
8 x1681:7 0.001
9 x1681:8 0.0615
10 x1681:9 0.9041
11 x1681:10 0.001
12 x1681:11 0.001
13 x1681:12 1.1491
14 x1681:13 0.1128
15 x1681:14 0.001
16 x1681:15 0.001
17 x1681:16 0.7042
18 x1681:17 0.7645
19 x1681:18 0.001
20 x1681:19 0.001
21 x1681:20 0.3851
22 x1681:21 0.0868
23 x1681:22 0.001
24 x1681:23 0.001
25 x1681:24 0.3141
26 x1681:25 0.0766
27 x1681:26 0.001
28 x1681:27 0.001
29 inst_2707:B2 0.0214
*RES
1 x1681 x1681:1 0.001
2 x1681:1 x1681:2 0.005
3 x1681:2 x1681:3 0.001
4 x1681:3 x1681:4 0.0019
5 x1681:4 x1681:5 0.005
6 x1681:5 x1681:6 0.001
7 x1681:6 x1681:7 0.003
8 x1681:7 x1681:8 0.001
9 x1681:8 x1681:9 0.003
10 x1681:9 x1681:10 0.0202
11 x1681:10 x1681:11 0.003
12 x1681:11 x1681:12 0.0023
13 x1681:12 x1681:13 0.003
14 x1681:13 x1681:14 0.0013
15 x1681:14 x1681:15 0.003
16 x1681:15 x1681:16 0.0088
17 x1681:16 x1681:17 0.003
18 x1681:17 x1681:18 0.0103
19 x1681:18 x1681:19 0.005
20 x1681:19 x1681:20 0.0156
21 x1681:20 x1681:21 0.005
22 x1681:21 x1681:22 0.0025
23 x1681:22 x1681:23 0.005
24 x1681:23 x1681:24 0.0115
25 x1681:24 x1681:25 0.005
26 x1681:25 x1681:26 0.002
27 x1681:26 x1681:27 0.005
28 x1681:27 inst_2707:B2 0.001
*END

*D_NET x597 0.9681
*CONN
*I inst_1169:A2 I
*P x597 I
*CAP
1 x597 0.0249
2 x597:1 0.001
3 x597:2 0.0068
4 x597:3 0.3754
5 x597:4 0.001
6 x597:5 0.001
7 x597:6 0.0845
8 x597:7 0.3817
9 x597:8 0.001
10 x597:9 0.001
11 x597:10 0.0655
12 inst_1169:A2 0.0243
*RES
1 x597 x597:1 0.001
2 x597:1 x597:2 0.005
3 x597:2 x597:3 0.001
4 x597:3 x597:4 0.0186
5 x597:4 x597:5 0.005
6 x597:5 x597:6 0.0011
7 x597:6 x597:7 0.005
8 x597:7 x597:8 0.0166
9 x597:8 x597:9 0.005
10 x597:9 x597:10 0.0015
11 x597:10 inst_1169:A2 0.005
*END

*D_NET x1262 3.5181
*CONN
*I inst_2732:B2 I
*P x1262 I
*CAP
1 x1262 0.1221
2 x1262:1 0.0161
3 x1262:2 0.001
4 x1262:3 0.4216
5 x1262:4 0.13
6 x1262:5 0.001
7 x1262:6 0.001
8 x1262:7 0.9404
9 x1262:8 0.9213
10 x1262:9 0.001
11 x1262:10 0.3848
12 x1262:11 0.001
13 x1262:12 0.001
14 x1262:13 0.2493
15 x1262:14 0.1991
16 x1262:15 0.001
17 x1262:16 0.001
18 inst_2732:B2 0.1254
*RES
1 x1262 x1262:1 0.0051
2 x1262:1 x1262:2 0.005
3 x1262:2 x1262:3 0.0194
4 x1262:3 x1262:4 0.005
5 x1262:4 x1262:5 0.0013
6 x1262:5 x1262:6 0.005
7 x1262:6 x1262:7 0.05
8 x1262:7 x1262:8 0.005
9 x1262:8 x1262:9 0.0155
10 x1262:9 x1262:10 0.001
11 x1262:10 x1262:11 0.0053
12 x1262:11 x1262:12 0.005
13 x1262:12 x1262:13 0.0102
14 x1262:13 x1262:14 0.005
15 x1262:14 x1262:15 0.0065
16 x1262:15 x1262:16 0.005
17 x1262:16 inst_2732:B2 0.0072
*END

*D_NET x523 1.2052
*CONN
*I inst_1347:A1 I
*P x523 I
*CAP
1 x523 0.0251
2 x523:1 0.001
3 x523:2 0.0179
4 x523:3 0.4667
5 x523:4 0.001
6 x523:5 0.3381
7 x523:6 0.001
8 x523:7 0.0907
9 x523:8 0.001
10 x523:9 0.2378
11 x523:10 0.001
12 inst_1347:A1 0.0239
*RES
1 x523 x523:1 0.001
2 x523:1 x523:2 0.005
3 x523:2 x523:3 0.001
4 x523:3 x523:4 0.0224
5 x523:4 x523:5 0.005
6 x523:5 x523:6 0.014
7 x523:6 x523:7 0.005
8 x523:7 x523:8 0.0041
9 x523:8 x523:9 0.005
10 x523:9 x523:10 0.009
11 x523:10 inst_1347:A1 0.005
*END

*D_NET x1490 5.9922
*CONN
*I inst_2728:A2 I
*P x1490 I
*CAP
1 x1490 0.031
2 x1490:1 0.001
3 x1490:2 0.0326
4 x1490:3 0.001
5 x1490:4 0.7091
6 x1490:5 0.0134
7 x1490:6 1.2035
8 x1490:7 0.0857
9 x1490:8 0.001
10 x1490:9 0.0145
11 x1490:10 1.4699
12 x1490:11 0.001
13 x1490:12 0.0899
14 x1490:13 1.3244
15 x1490:14 0.001
16 x1490:15 0.001
17 x1490:16 0.4839
18 x1490:17 0.0492
19 x1490:18 0.001
20 x1490:19 0.0197
21 x1490:20 0.2289
22 x1490:21 0.001
23 x1490:22 0.001
24 x1490:23 0.0821
25 x1490:24 0.1332
26 x1490:25 0.001
27 inst_2728:A2 0.0112
*RES
1 x1490 x1490:1 0.001
2 x1490:1 x1490:2 0.005
3 x1490:2 x1490:3 0.001
4 x1490:3 x1490:4 0.0434
5 x1490:4 x1490:5 0.001
6 x1490:5 x1490:6 0.0654
7 x1490:6 x1490:7 0.005
8 x1490:7 x1490:8 0.001
9 x1490:8 x1490:9 0.003
10 x1490:9 x1490:10 0.003
11 x1490:10 x1490:11 0.0357
12 x1490:11 x1490:12 0.003
13 x1490:12 x1490:13 0.001
14 x1490:13 x1490:14 0.0027
15 x1490:14 x1490:15 0.001
16 x1490:15 x1490:16 0.001
17 x1490:16 x1490:17 0.003
18 x1490:17 x1490:18 0.001
19 x1490:18 x1490:19 0.003
20 x1490:19 x1490:20 0.003
21 x1490:20 x1490:21 0.0027
22 x1490:21 x1490:22 0.005
23 x1490:22 x1490:23 0.002
24 x1490:23 x1490:24 0.005
25 x1490:24 x1490:25 0.0035
26 x1490:25 inst_2728:A2 0.005
*END

*D_NET x1007 1.5069
*CONN
*I inst_2302:A I
*P x1007 I
*CAP
1 x1007 0.124
2 x1007:1 0.0154
3 x1007:2 0.001
4 x1007:3 1.0057
5 x1007:4 0.3364
6 x1007:5 0.001
7 inst_2302:A 0.0234
*RES
1 x1007 x1007:1 0.0061
2 x1007:1 x1007:2 0.005
3 x1007:2 x1007:3 0.0529
4 x1007:3 x1007:4 0.005
5 x1007:4 x1007:5 0.015
6 x1007:5 inst_2302:A 0.005
*END

*D_NET x780 1.9288
*CONN
*I inst_2286:A I
*P x780 I
*CAP
1 x780 0.0256
2 x780:1 0.001
3 x780:2 0.001
4 x780:3 0.6078
5 x780:4 0.001
6 x780:5 0.001
7 x780:6 1.0372
8 x780:7 0.1305
9 x780:8 0.001
10 x780:9 0.001
11 x780:10 0.1008
12 x780:11 0.001
13 inst_2286:A 0.0199
*RES
1 x780 x780:1 0.001
2 x780:1 x780:2 0.005
3 x780:2 x780:3 0.001
4 x780:3 x780:4 0.0286
5 x780:4 x780:5 0.005
6 x780:5 x780:6 0.0189
7 x780:6 x780:7 0.005
8 x780:7 x780:8 0.0066
9 x780:8 x780:9 0.005
10 x780:9 x780:10 0.004
11 x780:10 x780:11 0.005
12 x780:11 inst_2286:A 0.001
*END

*D_NET x1662 3.0416
*CONN
*I inst_1537:A2 I
*P x1662 I
*CAP
1 x1662 0.0286
2 x1662:1 0.001
3 x1662:2 0.001
4 x1662:3 0.0174
5 x1662:4 0.0175
6 x1662:5 0.0244
7 x1662:6 0.001
8 x1662:7 0.9892
9 x1662:8 0.977
10 x1662:9 0.001
11 x1662:10 0.001
12 x1662:11 0.4342
13 x1662:12 0.1362
14 x1662:13 0.001
15 x1662:14 0.001
16 x1662:15 0.3766
17 x1662:16 0.0124
18 x1662:17 0.001
19 inst_1537:A2 0.0201
*RES
1 x1662 x1662:1 0.001
2 x1662:1 x1662:2 0.005
3 x1662:2 x1662:3 0.001
4 x1662:3 x1662:4 0.001
5 x1662:4 x1662:5 0.005
6 x1662:5 x1662:6 0.003
7 x1662:6 x1662:7 0.0227
8 x1662:7 x1662:8 0.003
9 x1662:8 x1662:9 0.021
10 x1662:9 x1662:10 0.003
11 x1662:10 x1662:11 0.005
12 x1662:11 x1662:12 0.003
13 x1662:12 x1662:13 0.001
14 x1662:13 x1662:14 0.005
15 x1662:14 x1662:15 0.0125
16 x1662:15 x1662:16 0.005
17 x1662:16 x1662:17 0.005
18 x1662:17 inst_1537:A2 0.001
*END

*D_NET x2480 73.283
*CONN
*I inst_2485:RN I
*I inst_2580:RN I
*I inst_2492:RN I
*I inst_2511:RN I
*I inst_2543:RN I
*I inst_2520:RN I
*I inst_2573:RN I
*I inst_2607:RN I
*I inst_2625:RN I
*I inst_2479:RN I
*I inst_2578:RN I
*I inst_2539:RN I
*I inst_2634:RN I
*I inst_2581:RN I
*I inst_2623:RN I
*I inst_2482:RN I
*I inst_2649:RN I
*I inst_2591:RN I
*I inst_2652:RN I
*I inst_2615:RN I
*I inst_2532:RN I
*I inst_2612:RN I
*I inst_2562:RN I
*I inst_2595:RN I
*I inst_2533:RN I
*I inst_2496:RN I
*I inst_2491:RN I
*I inst_2594:RN I
*I inst_2481:RN I
*I inst_2558:RN I
*I inst_2567:RN I
*I inst_2572:RN I
*I inst_2588:RN I
*I inst_2551:RN I
*I inst_2633:RN I
*I inst_2524:RN I
*I inst_2663:RN I
*I inst_2642:RN I
*I inst_2486:RN I
*I inst_2536:RN I
*I inst_2507:RN I
*I inst_2601:RN I
*I inst_2475:RN I
*I inst_2644:RN I
*I inst_2626:RN I
*I inst_2476:RN I
*I inst_2547:RN I
*I inst_2611:RN I
*I inst_2620:RN I
*I inst_2606:RN I
*I inst_2523:RN I
*I inst_2655:RN I
*I inst_2646:RN I
*I inst_2630:RN I
*I inst_2662:RN I
*I inst_2518:RN I
*I inst_2589:RN I
*I inst_2555:RN I
*I inst_2549:RN I
*I inst_2584:RN I
*I inst_2592:RN I
*I inst_2568:RN I
*I inst_2502:RN I
*I inst_2614:RN I
*I inst_2535:RN I
*I inst_2519:RN I
*I inst_2544:RN I
*I inst_2635:RN I
*I inst_2619:RN I
*I inst_2559:RN I
*I inst_2477:RN I
*I inst_2610:RN I
*I inst_2621:RN I
*I inst_2577:RN I
*I inst_2552:RN I
*I inst_2514:RN I
*I inst_2527:RN I
*I inst_2596:RN I
*I inst_2480:RN I
*I inst_2517:RN I
*I inst_2548:RN I
*I inst_2484:RN I
*I inst_2651:RN I
*I inst_2643:RN I
*I inst_2600:RN I
*I inst_2571:RN I
*I inst_2493:RN I
*I inst_2506:RN I
*I inst_2645:RN I
*I inst_2627:RN I
*I inst_2534:RN I
*I inst_2576:RN I
*I inst_2631:RN I
*I inst_2563:RN I
*I inst_2565:RN I
*I inst_2636:RN I
*I inst_2638:RN I
*I inst_2617:RN I
*I inst_2647:RN I
*I inst_2583:RN I
*I inst_2654:RN I
*I inst_2545:RN I
*I inst_2590:RN I
*I inst_2587:RN I
*I inst_2560:RN I
*I inst_2513:RN I
*I inst_2500:RN I
*I inst_2489:RN I
*I inst_2609:RN I
*I inst_2556:RN I
*I inst_2497:RN I
*I inst_2597:RN I
*I inst_2494:RN I
*I inst_2661:RN I
*I inst_2526:RN I
*I inst_2501:RN I
*I inst_2488:RN I
*I inst_2483:RN I
*I inst_2650:RN I
*I inst_2516:RN I
*I inst_2505:RN I
*I inst_2504:RN I
*I inst_2603:RN I
*I inst_2628:RN I
*I inst_2528:RN I
*I inst_2478:RN I
*I inst_2538:RN I
*I inst_2498:RN I
*I inst_2531:RN I
*I inst_2586:RN I
*I inst_2622:RN I
*I inst_2574:RN I
*I inst_2599:RN I
*I inst_2564:RN I
*I inst_2618:RN I
*I inst_2553:RN I
*I inst_2540:RN I
*I inst_2657:RN I
*I inst_2605:RN I
*I inst_2569:RN I
*I inst_2579:RN I
*I inst_2640:RN I
*I inst_2659:RN I
*I inst_2566:RN I
*I inst_2598:RN I
*I inst_2616:RN I
*I inst_2582:RN I
*I inst_2639:RN I
*I inst_2509:RN I
*I inst_2542:RN I
*I inst_2474:SN I
*I inst_2495:RN I
*I inst_2508:RN I
*I inst_2637:RN I
*I inst_2608:RN I
*I inst_2557:RN I
*I inst_2521:RN I
*I inst_2653:RN I
*I inst_2550:RN I
*I inst_2648:RN I
*I inst_2660:RN I
*I inst_2613:RN I
*I inst_2570:RN I
*I inst_2624:RN I
*I inst_2575:RN I
*I inst_2512:RN I
*I inst_2529:RN I
*I inst_2490:RN I
*I inst_2546:RN I
*I inst_2632:RN I
*I inst_2487:RN I
*I inst_2530:RN I
*I inst_2629:RN I
*I inst_2515:RN I
*I inst_2602:RN I
*I inst_2503:RN I
*I inst_2499:RN I
*I inst_2541:RN I
*I inst_2554:RN I
*I inst_2561:RN I
*I inst_2604:RN I
*I inst_2641:RN I
*I inst_2658:RN I
*I inst_2525:RN I
*I inst_2537:RN I
*I inst_2585:RN I
*I inst_2522:RN I
*I inst_2510:RN I
*I inst_2656:RN I
*I inst_2593:RN I
*P x2480 I
*CAP
1 x2480 0.0286
2 x2480:1 0.001
3 x2480:2 0.001
4 x2480:3 0.0211
5 x2480:4 0.3867
6 x2480:5 0.0109
7 x2480:6 0.3438
8 inst_2658:RN 0.0163
9 x2480:8 0.2009
10 x2480:9 0.001
11 inst_2660:RN 0.0167
12 x2480:11 0.1549
13 x2480:12 0.1575
14 inst_2576:RN 0.0167
15 x2480:14 0.0885
16 x2480:15 0.1162
17 inst_2596:RN 0.0163
18 x2480:17 0.1492
19 x2480:18 0.1792
20 x2480:19 0.001
21 inst_2549:RN 0.0167
22 inst_2610:RN 0.0175
23 x2480:22 0.001
24 x2480:23 0.165
25 x2480:24 0.0152
26 x2480:25 0.1316
27 inst_2648:RN 0.0181
28 x2480:27 0.0081
29 x2480:28 0.1944
30 inst_2653:RN 0.0167
31 x2480:30 0.011
32 x2480:31 0.2276
33 x2480:32 0.001
34 x2480:33 0.1021
35 x2480:34 0.1318
36 x2480:35 0.001
37 x2480:36 0.001
38 x2480:37 0.0127
39 x2480:38 0.0982
40 x2480:39 0.0176
41 x2480:40 0.001
42 inst_2573:RN 0.0182
43 x2480:42 0.0656
44 x2480:43 0.0091
45 x2480:44 0.1524
46 inst_2607:RN 0.0175
47 x2480:46 0.0437
48 x2480:47 0.0271
49 x2480:48 0.0115
50 x2480:49 0.1005
51 x2480:50 0.001
52 x2480:51 0.0543
53 inst_2562:RN 0.0167
54 x2480:53 0.1893
55 x2480:54 0.001
56 x2480:55 0.0355
57 x2480:56 0.001
58 inst_2605:RN 0.0167
59 x2480:58 0.0657
60 x2480:59 0.1496
61 x2480:60 0.001
62 x2480:61 0.015
63 inst_2595:RN 0.017
64 x2480:63 0.001
65 x2480:64 0.001
66 x2480:65 0.1455
67 x2480:66 0.4747
68 x2480:67 0.0783
69 x2480:68 0.3177
70 x2480:69 0.0158
71 x2480:70 0.1586
72 x2480:71 0.0119
73 x2480:72 0.019
74 x2480:73 0.0255
75 inst_2538:RN 0.0163
76 x2480:75 0.0429
77 inst_2656:RN 0.018
78 inst_2586:RN 0.0179
79 x2480:78 0.001
80 x2480:79 0.027
81 x2480:80 0.001
82 x2480:81 0.057
83 x2480:82 0.0185
84 x2480:83 0.0945
85 x2480:84 0.0404
86 x2480:85 0.085
87 x2480:86 0.001
88 x2480:87 0.001
89 x2480:88 0.001
90 x2480:89 0.039
91 x2480:90 0.0875
92 inst_2647:RN 0.0179
93 x2480:92 0.2119
94 x2480:93 0.001
95 inst_2580:RN 0.0171
96 x2480:95 0.0489
97 x2480:96 0.3471
98 x2480:97 0.508
99 x2480:98 0.001
100 x2480:99 0.0282
101 x2480:100 0.1014
102 inst_2581:RN 0.017
103 x2480:102 0.0766
104 x2480:103 0.001
105 x2480:104 0.001
106 inst_2584:RN 0.0167
107 x2480:106 0.001
108 x2480:107 0.0188
109 x2480:108 0.1253
110 x2480:109 0.2014
111 x2480:110 0.0115
112 x2480:111 0.0044
113 inst_2621:RN 0.0168
114 x2480:113 0.1575
115 inst_2551:RN 0.0175
116 x2480:115 0.0137
117 x2480:116 0.001
118 x2480:117 0.3191
119 x2480:118 0.144
120 x2480:119 0.001
121 x2480:120 0.1734
122 x2480:121 0.0715
123 x2480:122 0.0904
124 x2480:123 0.001
125 x2480:124 0.0274
126 x2480:125 0.001
127 inst_2552:RN 0.0167
128 x2480:127 0.0136
129 x2480:128 0.001
130 x2480:129 0.0436
131 x2480:130 0.0813
132 x2480:131 1.1667
133 x2480:132 0.001
134 inst_2570:RN 0.0171
135 x2480:134 0.001
136 x2480:135 0.0423
137 x2480:136 0.7872
138 x2480:137 0.001
139 x2480:138 0.001
140 x2480:139 0.001
141 x2480:140 0.3476
142 x2480:141 0.0173
143 x2480:142 0.0176
144 x2480:143 0.001
145 x2480:144 0.0652
146 x2480:145 0.0557
147 x2480:146 0.0748
148 inst_2539:RN 0.017
149 inst_2630:RN 0.0179
150 x2480:149 0.0975
151 inst_2642:RN 0.0166
152 x2480:151 0.2075
153 x2480:152 0.001
154 x2480:153 0.0303
155 x2480:154 0.1599
156 x2480:155 0.001
157 x2480:156 0.0544
158 x2480:157 0.2069
159 x2480:158 0.001
160 inst_2620:RN 0.017
161 x2480:160 0.0175
162 x2480:161 0.0632
163 x2480:162 0.5381
164 x2480:163 0.1926
165 x2480:164 0.001
166 x2480:165 0.001
167 x2480:166 0.001
168 x2480:167 0.001
169 x2480:168 0.0886
170 x2480:169 0.2127
171 x2480:170 0.1391
172 x2480:171 0.0168
173 x2480:172 0.001
174 x2480:173 0.001
175 x2480:174 0.2104
176 inst_2553:RN 0.0167
177 x2480:176 0.3166
178 x2480:177 0.001
179 x2480:178 0.1326
180 inst_2536:RN 0.0166
181 x2480:180 0.0942
182 x2480:181 0.0591
183 x2480:182 0.001
184 x2480:183 0.1579
185 x2480:184 0.0315
186 x2480:185 0.0134
187 x2480:186 0.0158
188 x2480:187 0.001
189 x2480:188 0.001
190 x2480:189 0.2857
191 inst_2603:RN 0.0189
192 x2480:191 0.0097
193 x2480:192 0.051
194 inst_2558:RN 0.0187
195 x2480:194 0.001
196 x2480:195 0.0112
197 x2480:196 0.001
198 x2480:197 0.0851
199 inst_2535:RN 0.017
200 x2480:199 0.1321
201 x2480:200 0.1639
202 x2480:201 0.001
203 x2480:202 0.001
204 inst_2499:RN 0.0119
205 x2480:204 0.0538
206 x2480:205 0.0504
207 x2480:206 0.162
208 x2480:207 0.001
209 x2480:208 0.001
210 inst_2500:RN 0.012
211 x2480:210 0.1537
212 x2480:211 0.2732
213 x2480:212 0.1687
214 x2480:213 0.0765
215 x2480:214 0.001
216 x2480:215 0.0203
217 x2480:216 0.001
218 x2480:217 0.0483
219 x2480:218 0.0148
220 x2480:219 0.0188
221 x2480:220 0.001
222 x2480:221 0.2539
223 x2480:222 0.1359
224 x2480:223 0.1063
225 x2480:224 0.2727
226 x2480:225 0.0349
227 inst_2629:RN 0.0168
228 x2480:227 0.0568
229 inst_2628:RN 0.0178
230 x2480:229 0.1986
231 x2480:230 0.1463
232 x2480:231 0.001
233 x2480:232 0.0215
234 x2480:233 0.0812
235 x2480:234 0.001
236 x2480:235 0.0168
237 x2480:236 0.001
238 x2480:237 0.0686
239 x2480:238 0.001
240 x2480:239 0.001
241 inst_2497:RN 0.0123
242 x2480:241 0.2172
243 x2480:242 0.0145
244 x2480:243 0.001
245 x2480:244 0.0697
246 x2480:245 0.001
247 x2480:246 0.001
248 x2480:247 0.2676
249 x2480:248 0.1638
250 x2480:249 0.0902
251 x2480:250 0.0675
252 inst_2476:RN 0.0255
253 x2480:252 0.4779
254 x2480:253 0.001
255 x2480:254 0.0202
256 x2480:255 0.0188
257 x2480:256 0.001
258 inst_2622:RN 0.0169
259 x2480:258 0.0519
260 x2480:259 0.1483
261 x2480:260 0.0566
262 x2480:261 0.001
263 x2480:262 0.0336
264 inst_2599:RN 0.0169
265 x2480:264 0.0578
266 x2480:265 0.1336
267 inst_2494:RN 0.0261
268 x2480:267 0.001
269 x2480:268 0.0223
270 x2480:269 0.001
271 x2480:270 0.001
272 x2480:271 0.1326
273 x2480:272 0.0335
274 x2480:273 0.0619
275 x2480:274 0.159
276 x2480:275 0.0179
277 x2480:276 0.0255
278 inst_2523:RN 0.0128
279 x2480:278 0.1386
280 x2480:279 0.001
281 x2480:280 0.22
282 x2480:281 0.0147
283 x2480:282 0.001
284 x2480:283 0.1362
285 inst_2484:RN 0.0124
286 x2480:285 0.001
287 x2480:286 0.001
288 x2480:287 0.8469
289 x2480:288 0.0646
290 x2480:289 0.001
291 inst_2507:RN 0.0248
292 x2480:291 0.2473
293 x2480:292 0.001
294 x2480:293 0.001
295 x2480:294 0.0571
296 x2480:295 0.1776
297 x2480:296 0.7908
298 x2480:297 0.0434
299 x2480:298 0.2611
300 inst_2588:RN 0.0168
301 x2480:300 0.0178
302 inst_2522:RN 0.0113
303 x2480:302 0.001
304 x2480:303 0.001
305 x2480:304 0.0698
306 x2480:305 0.0092
307 x2480:306 0.2255
308 x2480:307 0.001
309 x2480:308 0.1111
310 x2480:309 0.001
311 x2480:310 0.1919
312 x2480:311 0.0931
313 x2480:312 0.2357
314 x2480:313 0.001
315 x2480:314 0.001
316 inst_2529:RN 0.0112
317 x2480:316 0.014
318 x2480:317 0.0152
319 x2480:318 0.0585
320 x2480:319 0.0137
321 x2480:320 0.0376
322 x2480:321 0.3795
323 x2480:322 0.0734
324 x2480:323 0.0518
325 x2480:324 0.0508
326 x2480:325 0.0666
327 x2480:326 0.001
328 inst_2519:RN 0.012
329 x2480:328 0.2288
330 x2480:329 0.0125
331 inst_2554:RN 0.017
332 x2480:331 0.001
333 inst_2480:RN 0.0124
334 x2480:333 0.1759
335 x2480:334 0.001
336 x2480:335 0.204
337 x2480:336 0.001
338 inst_2545:RN 0.0174
339 x2480:338 0.001
340 x2480:339 0.0077
341 inst_2548:RN 0.0175
342 x2480:341 0.0955
343 x2480:342 0.001
344 x2480:343 0.24
345 x2480:344 0.1158
346 x2480:345 0.001
347 inst_2601:RN 0.0163
348 x2480:347 0.001
349 x2480:348 0.1186
350 x2480:349 0.0111
351 inst_2624:RN 0.0178
352 x2480:351 0.2185
353 x2480:352 0.0441
354 x2480:353 0.1667
355 x2480:354 0.0829
356 x2480:355 0.001
357 inst_2564:RN 0.0199
358 x2480:357 0.0159
359 x2480:358 0.0636
360 x2480:359 0.001
361 x2480:360 0.001
362 x2480:361 0.0948
363 inst_2617:RN 0.018
364 x2480:363 0.0134
365 x2480:364 0.0415
366 x2480:365 0.001
367 x2480:366 0.0752
368 x2480:367 0.001
369 x2480:368 0.0109
370 x2480:369 0.1529
371 x2480:370 0.0653
372 inst_2511:RN 0.0119
373 x2480:372 0.3491
374 inst_2589:RN 0.0183
375 x2480:374 0.3612
376 x2480:375 0.001
377 x2480:376 0.0379
378 x2480:377 0.0443
379 x2480:378 0.0402
380 x2480:379 0.0346
381 inst_2615:RN 0.0174
382 x2480:381 0.0819
383 x2480:382 0.001
384 x2480:383 0.001
385 x2480:384 0.2006
386 x2480:385 0.001
387 x2480:386 0.001
388 x2480:387 0.001
389 x2480:388 0.001
390 x2480:389 0.3016
391 x2480:390 0.1659
392 x2480:391 0.001
393 x2480:392 0.0573
394 inst_2534:RN 0.0126
395 x2480:394 0.3054
396 inst_2498:RN 0.0241
397 x2480:396 0.0126
398 x2480:397 0.0587
399 x2480:398 0.001
400 inst_2611:RN 0.0173
401 x2480:400 0.001