*SPEF "IEEE 1481-1998"
*DESIGN "pci_bridge32_slow"
*DATE "Tue Apr  9 19:32:44 2024
"*VENDOR "TAU 2019 Contest Team TimeBoost Solution"
*PROGRAM "TimeBoost Optimizer"
*VERSION "0.0"
*DESIGN_FLOW "PIN_CAP NONE" "NAME_SCOPE LOCAL" "MISSING_NETS"
*DIVIDER /
*DELIMITER :
*BUS_DELIMITER [ ]
*T_UNIT 1 PS
*C_UNIT 1 FF
*R_UNIT 1 KOHM
*L_UNIT 1 UH

